/*--------------------------------*- C++ -*----------------------------------*\
  =========                 |
  \\      /  F ield         | OpenFOAM: The Open Source CFD Toolbox
   \\    /   O peration     | Website:  https://openfoam.org
    \\  /    A nd           | Version:  11
     \\/     M anipulation  |
\*---------------------------------------------------------------------------*/
FoamFile
{
    format      binary;
    class       polyBoundaryMesh;
    location    "4/polyMesh";
    object      boundary;
}
// * * * * * * * * * * * * * * * * * * * * * * * * * * * * * * * * * * * * * //

14
(
    left
    {
        type            patch;
        inGroups        (freestream);
        nFaces          445;
        startFace       701474;
    }
    right
    {
        type            patch;
        inGroups        (freestream);
        nFaces          391;
        startFace       701919;
    }
    top
    {
        type            patch;
        inGroups        (freestream);
        nFaces          400;
        startFace       702310;
    }
    symmetry_h
    {
        type            symmetryPlane;
        nFaces          6379;
        startFace       702710;
    }
    symmetry_v
    {
        type            symmetryPlane;
        nFaces          5846;
        startFace       709089;
    }
    back
    {
        type            patch;
        inGroups        (freestream);
        nFaces          400;
        startFace       714935;
    }
    inlet
    {
        type            patch;
        nFaces          1548;
        startFace       715335;
    }
    outlet
    {
        type            patch;
        nFaces          519;
        startFace       716883;
    }
    nozzle_int
    {
        type            wall;
        inGroups        (wall_int);
        nFaces          8338;
        startFace       717402;
    }
    nozzle_ext
    {
        type            wall;
        inGroups        (wall_ext);
        nFaces          8347;
        startFace       725740;
    }
    collector_int
    {
        type            wall;
        inGroups        (wall_int);
        nFaces          1620;
        startFace       734087;
    }
    collector_ext
    {
        type            wall;
        inGroups        (wall_ext);
        nFaces          1598;
        startFace       735707;
    }
    diffuser_int
    {
        type            wall;
        inGroups        (wall_int);
        nFaces          4311;
        startFace       737305;
    }
    diffuser_ext
    {
        type            wall;
        inGroups        (wall_ext);
        nFaces          4384;
        startFace       741616;
    }
)

// ************************************************************************* //
