/*--------------------------------*- C++ -*----------------------------------*\
  =========                 |
  \\      /  F ield         | OpenFOAM: The Open Source CFD Toolbox
   \\    /   O peration     | Website:  https://openfoam.org
    \\  /    A nd           | Version:  11
     \\/     M anipulation  |
\*---------------------------------------------------------------------------*/
FoamFile
{
    format      binary;
    class       polyBoundaryMesh;
    location    "constant/polyMesh";
    object      boundary;
}
// * * * * * * * * * * * * * * * * * * * * * * * * * * * * * * * * * * * * * //

14
(
    left
    {
        type            patch;
        inGroups        (freestream);
        nFaces          1195;
        startFace       1317778;
    }
    right
    {
        type            patch;
        inGroups        (freestream);
        nFaces          817;
        startFace       1318973;
    }
    top
    {
        type            patch;
        inGroups        (freestream);
        nFaces          400;
        startFace       1319790;
    }
    bottom
    {
        type            patch;
        inGroups        (freestream);
        nFaces          400;
        startFace       1320190;
    }
    symmetry
    {
        type            symmetryPlane;
        nFaces          11234;
        startFace       1320590;
    }
    back
    {
        type            patch;
        inGroups        (freestream);
        nFaces          1000;
        startFace       1331824;
    }
    inlet
    {
        type            patch;
        nFaces          3102;
        startFace       1332824;
    }
    outlet
    {
        type            patch;
        nFaces          758;
        startFace       1335926;
    }
    nozzle_int
    {
        type            wall;
        inGroups        (internal);
        nFaces          16599;
        startFace       1336684;
    }
    nozzle_ext
    {
        type            wall;
        inGroups        (external);
        nFaces          16879;
        startFace       1353283;
    }
    collector_int
    {
        type            wall;
        inGroups        (internal);
        nFaces          3266;
        startFace       1370162;
    }
    collector_ext
    {
        type            wall;
        inGroups        (external);
        nFaces          3058;
        startFace       1373428;
    }
    diffuser_int
    {
        type            wall;
        inGroups        (internal);
        nFaces          8609;
        startFace       1376486;
    }
    diffuser_ext
    {
        type            wall;
        inGroups        (external);
        nFaces          8842;
        startFace       1385095;
    }
)

// ************************************************************************* //
