/*--------------------------------*- C++ -*----------------------------------*\
  =========                 |
  \\      /  F ield         | OpenFOAM: The Open Source CFD Toolbox
   \\    /   O peration     | Website:  https://openfoam.org
    \\  /    A nd           | Version:  11
     \\/     M anipulation  |
\*---------------------------------------------------------------------------*/
FoamFile
{
    format      binary;
    class       polyBoundaryMesh;
    location    "constant/polyMesh";
    object      boundary;
}
// * * * * * * * * * * * * * * * * * * * * * * * * * * * * * * * * * * * * * //

14
(
    left
    {
        type            patch;
        inGroups        (freestream);
        nFaces          1178;
        startFace       1764213;
    }
    right
    {
        type            patch;
        inGroups        (freestream);
        nFaces          776;
        startFace       1765391;
    }
    top
    {
        type            patch;
        inGroups        (freestream);
        nFaces          400;
        startFace       1766167;
    }
    bottom
    {
        type            patch;
        inGroups        (freestream);
        nFaces          400;
        startFace       1766567;
    }
    symmetry
    {
        type            symmetryPlane;
        nFaces          14475;
        startFace       1766967;
    }
    back
    {
        type            patch;
        inGroups        (freestream);
        nFaces          800;
        startFace       1781442;
    }
    inlet
    {
        type            patch;
        nFaces          3096;
        startFace       1782242;
    }
    outlet
    {
        type            patch;
        nFaces          758;
        startFace       1785338;
    }
    nozzle_int
    {
        type            wall;
        inGroups        (wall_int);
        nFaces          16593;
        startFace       1786096;
    }
    nozzle_ext
    {
        type            wall;
        inGroups        (wall_ext);
        nFaces          16855;
        startFace       1802689;
    }
    collector_int
    {
        type            wall;
        inGroups        (wall_int);
        nFaces          3268;
        startFace       1819544;
    }
    collector_ext
    {
        type            wall;
        inGroups        (wall_ext);
        nFaces          3054;
        startFace       1822812;
    }
    diffuser_int
    {
        type            wall;
        inGroups        (wall_int);
        nFaces          8609;
        startFace       1825866;
    }
    diffuser_ext
    {
        type            wall;
        inGroups        (wall_ext);
        nFaces          8842;
        startFace       1834475;
    }
)

// ************************************************************************* //
