/*--------------------------------*- C++ -*----------------------------------*\
  =========                 |
  \\      /  F ield         | OpenFOAM: The Open Source CFD Toolbox
   \\    /   O peration     | Website:  https://openfoam.org
    \\  /    A nd           | Version:  11
     \\/     M anipulation  |
\*---------------------------------------------------------------------------*/
FoamFile
{
    format      binary;
    class       polyBoundaryMesh;
    location    "constant/polyMesh";
    object      boundary;
}
// * * * * * * * * * * * * * * * * * * * * * * * * * * * * * * * * * * * * * //

6
(
    inlet
    {
        type            patch;
        nFaces          375;
        startFace       43025;
    }
    outlet
    {
        type            patch;
        nFaces          375;
        startFace       43400;
    }
    top
    {
        type            wall;
        inGroups        List<word> 1(wall);
        nFaces          600;
        startFace       43775;
    }
    bottom
    {
        type            wall;
        inGroups        List<word> 1(wall);
        nFaces          600;
        startFace       44375;
    }
    front
    {
        type            wall;
        inGroups        List<word> 1(wall);
        nFaces          1000;
        startFace       44975;
    }
    back
    {
        type            wall;
        inGroups        List<word> 1(wall);
        nFaces          1000;
        startFace       45975;
    }
)

// ************************************************************************* //
