/*--------------------------------*- C++ -*----------------------------------*\
  =========                 |
  \\      /  F ield         | OpenFOAM: The Open Source CFD Toolbox
   \\    /   O peration     | Website:  https://openfoam.org
    \\  /    A nd           | Version:  11
     \\/     M anipulation  |
\*---------------------------------------------------------------------------*/
FoamFile
{
    format      binary;
    class       polyBoundaryMesh;
    location    "constant/polyMesh";
    object      boundary;
}
// * * * * * * * * * * * * * * * * * * * * * * * * * * * * * * * * * * * * * //

14
(
    left
    {
        type            patch;
        inGroups        (freestream);
        nFaces          1033;
        startFace       1516498;
    }
    right
    {
        type            patch;
        inGroups        (freestream);
        nFaces          817;
        startFace       1517531;
    }
    top
    {
        type            patch;
        inGroups        (freestream);
        nFaces          400;
        startFace       1518348;
    }
    bottom
    {
        type            patch;
        inGroups        (freestream);
        nFaces          400;
        startFace       1518748;
    }
    symmetry
    {
        type            symmetryPlane;
        nFaces          12808;
        startFace       1519148;
    }
    back
    {
        type            patch;
        inGroups        (freestream);
        nFaces          1000;
        startFace       1531956;
    }
    inlet
    {
        type            patch;
        nFaces          3096;
        startFace       1532956;
    }
    outlet
    {
        type            patch;
        nFaces          1392;
        startFace       1536052;
    }
    nozzle_int
    {
        type            wall;
        inGroups        (interior);
        nFaces          16683;
        startFace       1537444;
    }
    nozzle_ext
    {
        type            wall;
        inGroups        (exterior);
        nFaces          16664;
        startFace       1554127;
    }
    collector_int
    {
        type            wall;
        inGroups        (interior);
        nFaces          3238;
        startFace       1570791;
    }
    collector_ext
    {
        type            wall;
        inGroups        (exterior);
        nFaces          3069;
        startFace       1574029;
    }
    diffuser_int
    {
        type            wall;
        inGroups        (interior);
        nFaces          8615;
        startFace       1577098;
    }
    diffuser_ext
    {
        type            wall;
        inGroups        (exterior);
        nFaces          8769;
        startFace       1585713;
    }
)


// ************************************************************************* //
