/*--------------------------------*- C++ -*----------------------------------*\
  =========                 |
  \\      /  F ield         | OpenFOAM: The Open Source CFD Toolbox
   \\    /   O peration     | Website:  https://openfoam.org
    \\  /    A nd           | Version:  11
     \\/     M anipulation  |
\*---------------------------------------------------------------------------*/
FoamFile
{
    format      binary;
    class       polyBoundaryMesh;
    location    "4/polyMesh";
    object      boundary;
}
// * * * * * * * * * * * * * * * * * * * * * * * * * * * * * * * * * * * * * //

14
(
    left
    {
        type            patch;
        inGroups        (freestream);
        nFaces          923;
        startFace       1186279;
    }
    right
    {
        type            patch;
        inGroups        (freestream);
        nFaces          779;
        startFace       1187202;
    }
    top
    {
        type            patch;
        inGroups        (freestream);
        nFaces          400;
        startFace       1187981;
    }
    bottom
    {
        type            patch;
        inGroups        (freestream);
        nFaces          400;
        startFace       1188381;
    }
    symmetry
    {
        type            symmetryPlane;
        nFaces          8931;
        startFace       1188781;
    }
    back
    {
        type            patch;
        inGroups        (freestream);
        nFaces          800;
        startFace       1197712;
    }
    inlet
    {
        type            patch;
        nFaces          1704;
        startFace       1198512;
    }
    outlet
    {
        type            patch;
        nFaces          675;
        startFace       1200216;
    }
    nozzle_int
    {
        type            wall;
        inGroups        (wall_int);
        nFaces          16701;
        startFace       1200891;
    }
    nozzle_ext
    {
        type            wall;
        inGroups        (wall_ext);
        nFaces          16636;
        startFace       1217592;
    }
    collector_int
    {
        type            wall;
        inGroups        (wall_int);
        nFaces          3235;
        startFace       1234228;
    }
    collector_ext
    {
        type            wall;
        inGroups        (wall_ext);
        nFaces          3069;
        startFace       1237463;
    }
    diffuser_int
    {
        type            wall;
        inGroups        (wall_int);
        nFaces          8615;
        startFace       1240532;
    }
    diffuser_ext
    {
        type            wall;
        inGroups        (wall_ext);
        nFaces          8769;
        startFace       1249147;
    }
)

// ************************************************************************* //
