/*--------------------------------*- C++ -*----------------------------------*\
  =========                 |
  \\      /  F ield         | OpenFOAM: The Open Source CFD Toolbox
   \\    /   O peration     | Website:  https://openfoam.org
    \\  /    A nd           | Version:  11
     \\/     M anipulation  |
\*---------------------------------------------------------------------------*/
FoamFile
{
    format      ascii;
    class       volScalarField;
    object      nut;
}
// * * * * * * * * * * * * * * * * * * * * * * * * * * * * * * * * * * * * * //

dimensions      [0 2 -1 0 0 0 0];

internalField   uniform 1.9154e-05;

boundaryField
{
    inlet
    {
        type            fixedValue;
        value           uniform 0.0374;
    }

    outlet
    {
        type            zeroGradient;
    }

    internal
    {
        type            nutUSpaldingWallFunction;
        value           uniform 0;
    }

    external
    {
        type            fixedValue;
        value           uniform 0;
    }

    freestream
    {
        type            zeroGradient;
    }
}

// ************************************************************************* //
