/*--------------------------------*- C++ -*----------------------------------*\
  =========                 |
  \\      /  F ield         | OpenFOAM: The Open Source CFD Toolbox
   \\    /   O peration     | Website:  https://openfoam.org
    \\  /    A nd           | Version:  11
     \\/     M anipulation  |
\*---------------------------------------------------------------------------*/
FoamFile
{
    format      ascii;
    class       volScalarField;
    object      p;
}
// * * * * * * * * * * * * * * * * * * * * * * * * * * * * * * * * * * * * * //

dimensions      [0 2 -2 0 0 0 0];

internalField   uniform 0;

boundaryField
{
    inlet
    {
        type            fixedValue;
        value           uniform 435.33;
    }
    
    outlet
    {
        type            zeroGradient;
    }

    internal
    {
        type            zeroGradient;
    }

    external
    {
        type            zeroGradient;
    }

    freestream
    {
        type            freestreamPressure;
        freestreamValue uniform 0;
    }
}

// ************************************************************************* //
